./Run.pl -db ./bench.db -dir results/gcc1 -benchmark gcc -sim ~/edu/ECE587/simulator/ss3/sim-outorder -args "-fastfwd 50000000 -max:inst 10000000 -cache:il1 il1:512:64:2:c -cache:dl1 dl1:1024:64:8:c -cache:il2 dl2 -cache:dl2 ul2:2048:64:4:c" >& results/gcc1.txt
